/*--------------------------------*- C++ -*----------------------------------*\
| =========                 |                                                 |
| \\      /  F ield         | OpenFOAM: The Open Source CFD Toolbox           |
|  \\    /   O peration     | Version:  2306                                  |
|   \\  /    A nd           | Website:  www.openfoam.com                      |
|    \\/     M anipulation  |                                                 |
\*---------------------------------------------------------------------------*/
FoamFile
{
    version     2.0;
    format      ascii;
    arch        "LSB;label=32;scalar=64";
    class       featureEdgeMesh;
    location    "constant/triSurface";
    object      pendulum.eMesh;
}
// * * * * * * * * * * * * * * * * * * * * * * * * * * * * * * * * * * * * * //


// points:

128
(
(0 0.039999999 -0.41999999)
(0.0078039998 0.039230999 -0.41999999)
(0.0078039998 0.039230999 -0.5)
(0 0.039999999 -0.5)
(0.015307 0.036954999 -0.41999999)
(0.015307 0.036954999 -0.5)
(0.022222999 0.033259001 -0.41999999)
(0.022222999 0.033259001 -0.5)
(0.028284 0.028284 -0.41999999)
(0.028284 0.028284 -0.5)
(0.033259001 0.022222999 -0.41999999)
(0.033259001 0.022222999 -0.5)
(0.036954999 0.015307 -0.41999999)
(0.036954999 0.015307 -0.5)
(0.039230999 0.0078039998 -0.41999999)
(0.039230999 0.0078039998 -0.5)
(0.039999999 0 -0.41999999)
(0.039999999 0 -0.5)
(0.039230999 -0.0078039998 -0.41999999)
(0.039230999 -0.0078039998 -0.5)
(0.036954999 -0.015307 -0.41999999)
(0.036954999 -0.015307 -0.5)
(0.033259001 -0.022222999 -0.41999999)
(0.033259001 -0.022222999 -0.5)
(0.028284 -0.028284 -0.41999999)
(0.028284 -0.028284 -0.5)
(0.022222999 -0.033259001 -0.41999999)
(0.022222999 -0.033259001 -0.5)
(0.015307 -0.036954999 -0.41999999)
(0.015307 -0.036954999 -0.5)
(0.0078039998 -0.039230999 -0.41999999)
(0.0078039998 -0.039230999 -0.5)
(0 -0.039999999 -0.41999999)
(0 -0.039999999 -0.5)
(-0.0078039998 -0.039230999 -0.41999999)
(-0.0078039998 -0.039230999 -0.5)
(-0.015307 -0.036954999 -0.41999999)
(-0.015307 -0.036954999 -0.5)
(-0.022222999 -0.033259001 -0.41999999)
(-0.022222999 -0.033259001 -0.5)
(-0.028284 -0.028284 -0.41999999)
(-0.028284 -0.028284 -0.5)
(-0.033259001 -0.022222999 -0.41999999)
(-0.033259001 -0.022222999 -0.5)
(-0.036954999 -0.015307 -0.41999999)
(-0.036954999 -0.015307 -0.5)
(-0.039230999 -0.0078039998 -0.41999999)
(-0.039230999 -0.0078039998 -0.5)
(-0.039999999 0 -0.41999999)
(-0.039999999 0 -0.5)
(-0.039230999 0.0078039998 -0.41999999)
(-0.039230999 0.0078039998 -0.5)
(-0.036954999 0.015307 -0.41999999)
(-0.036954999 0.015307 -0.5)
(-0.033259001 0.022222999 -0.41999999)
(-0.033259001 0.022222999 -0.5)
(-0.028284 0.028284 -0.41999999)
(-0.028284 0.028284 -0.5)
(-0.022222999 0.033259001 -0.41999999)
(-0.022222999 0.033259001 -0.5)
(-0.015307 0.036954999 -0.41999999)
(-0.015307 0.036954999 -0.5)
(-0.0078039998 0.039230999 -0.41999999)
(-0.0078039998 0.039230999 -0.5)
(0 0.02 -0.115)
(0.0039019999 0.019616 -0.115)
(0.0039019999 0.019616 -0.465)
(0 0.02 -0.465)
(0.0076540001 0.018478001 -0.115)
(0.0076540001 0.018478001 -0.465)
(0.011111 0.016628999 -0.115)
(0.011111 0.016628999 -0.465)
(0.014142 0.014142 -0.115)
(0.014142 0.014142 -0.465)
(0.016628999 0.011111 -0.115)
(0.016628999 0.011111 -0.465)
(0.018478001 0.0076540001 -0.115)
(0.018478001 0.0076540001 -0.465)
(0.019616 0.0039019999 -0.115)
(0.019616 0.0039019999 -0.465)
(0.02 0 -0.115)
(0.02 0 -0.465)
(0.019616 -0.0039019999 -0.115)
(0.019616 -0.0039019999 -0.465)
(0.018478001 -0.0076540001 -0.115)
(0.018478001 -0.0076540001 -0.465)
(0.016628999 -0.011111 -0.115)
(0.016628999 -0.011111 -0.465)
(0.014142 -0.014142 -0.115)
(0.014142 -0.014142 -0.465)
(0.011111 -0.016628999 -0.115)
(0.011111 -0.016628999 -0.465)
(0.0076540001 -0.018478001 -0.115)
(0.0076540001 -0.018478001 -0.465)
(0.0039019999 -0.019616 -0.115)
(0.0039019999 -0.019616 -0.465)
(0 -0.02 -0.115)
(0 -0.02 -0.465)
(-0.0039019999 -0.019616 -0.115)
(-0.0039019999 -0.019616 -0.465)
(-0.0076540001 -0.018478001 -0.115)
(-0.0076540001 -0.018478001 -0.465)
(-0.011111 -0.016628999 -0.115)
(-0.011111 -0.016628999 -0.465)
(-0.014142 -0.014142 -0.115)
(-0.014142 -0.014142 -0.465)
(-0.016628999 -0.011111 -0.115)
(-0.016628999 -0.011111 -0.465)
(-0.018478001 -0.0076540001 -0.115)
(-0.018478001 -0.0076540001 -0.465)
(-0.019616 -0.0039019999 -0.115)
(-0.019616 -0.0039019999 -0.465)
(-0.02 0 -0.115)
(-0.02 0 -0.465)
(-0.019616 0.0039019999 -0.115)
(-0.019616 0.0039019999 -0.465)
(-0.018478001 0.0076540001 -0.115)
(-0.018478001 0.0076540001 -0.465)
(-0.016628999 0.011111 -0.115)
(-0.016628999 0.011111 -0.465)
(-0.014142 0.014142 -0.115)
(-0.014142 0.014142 -0.465)
(-0.011111 0.016628999 -0.115)
(-0.011111 0.016628999 -0.465)
(-0.0076540001 0.018478001 -0.115)
(-0.0076540001 0.018478001 -0.465)
(-0.0039019999 0.019616 -0.115)
(-0.0039019999 0.019616 -0.465)
)


// edges:

128
(
(0 1)
(2 3)
(1 4)
(5 2)
(4 6)
(7 5)
(6 8)
(9 7)
(8 10)
(11 9)
(10 12)
(13 11)
(12 14)
(15 13)
(14 16)
(17 15)
(16 18)
(19 17)
(18 20)
(21 19)
(20 22)
(23 21)
(22 24)
(25 23)
(24 26)
(27 25)
(26 28)
(29 27)
(28 30)
(31 29)
(30 32)
(33 31)
(32 34)
(35 33)
(34 36)
(37 35)
(36 38)
(39 37)
(38 40)
(41 39)
(40 42)
(43 41)
(42 44)
(45 43)
(44 46)
(47 45)
(46 48)
(49 47)
(48 50)
(51 49)
(50 52)
(53 51)
(52 54)
(55 53)
(54 56)
(57 55)
(56 58)
(59 57)
(58 60)
(61 59)
(62 60)
(0 62)
(63 61)
(3 63)
(64 65)
(66 67)
(65 68)
(69 66)
(68 70)
(71 69)
(70 72)
(73 71)
(72 74)
(75 73)
(74 76)
(77 75)
(76 78)
(79 77)
(78 80)
(81 79)
(80 82)
(83 81)
(82 84)
(85 83)
(84 86)
(87 85)
(86 88)
(89 87)
(88 90)
(91 89)
(90 92)
(93 91)
(92 94)
(95 93)
(94 96)
(97 95)
(96 98)
(99 97)
(98 100)
(101 99)
(100 102)
(103 101)
(102 104)
(105 103)
(104 106)
(107 105)
(106 108)
(109 107)
(108 110)
(111 109)
(110 112)
(113 111)
(112 114)
(115 113)
(114 116)
(117 115)
(116 118)
(119 117)
(118 120)
(121 119)
(120 122)
(123 121)
(122 124)
(125 123)
(126 124)
(64 126)
(127 125)
(67 127)
)

// * * * * * * * * * * * * * * * * * * * * * * * * * * * * * * * * * * * * * //


// ************************************************************************* //
