/*--------------------------------*- C++ -*----------------------------------*\
| =========                 |                                                 |
| \\      /  F ield         | OpenFOAM: The Open Source CFD Toolbox           |
|  \\    /   O peration     | Version:  v2306                                 |
|   \\  /    A nd           | Website:  www.openfoam.com                      |
|    \\/     M anipulation  |                                                 |
\*---------------------------------------------------------------------------*/
FoamFile
{
    version     2.0;
    format      ascii;
    class       dictionary;
    object      blockMeshDict;
}
// * * * * * * * * * * * * * * * * * * * * * * * * * * * * * * * * * * * * * //

scale    1;

xmin    -0.2;
xmax     0.2;
ymin    -0.25;
ymax     0.25;
zmin    -0.7;
zmax    -0.1;


vertices
(
    ( $xmin $ymin $zmin )
    ( $xmax $ymin $zmin )
    ( $xmax $ymax $zmin )
    ( $xmin $ymax $zmin )
    ( $xmin $ymin $zmax )
    ( $xmax $ymin $zmax )
    ( $xmax $ymax $zmax )
    ( $xmin $ymax $zmax )
);

blocks
(
    hex (0 1 2 3 4 5 6 7) (60 60 120) simpleGrading (1 1 1)  // Adjusted resolution accordingly
);

edges
(
);

boundary
(
    XMin
    {
        type patch;
        faces
        (
            (0 4 7 3)
        );
    }
    XMax
    {
        type patch;
        faces
        (
            (1 2 6 5)
        );
    }
    YMin
    {
        type symmetry;
        faces
        (
            (0 1 5 4)
        );
    }
    YMax
    {
        type symmetry;
        faces
        (
            (3 7 6 2)
        );
    }
    ZMin
    {
        type wall;
        faces
        (
            (0 3 2 1)
        );
    }
    ZMax
    {
        type patch;
        faces
        (
            (4 5 6 7)
        );
    }
);

mergePatchPairs
(
);

// ************************************************************************* //
