/*--------------------------------*- C++ -*----------------------------------*\
| =========                 |                                                 |
| \\      /  F ield         | OpenFOAM: The Open Source CFD Toolbox           |
|  \\    /   O peration     | Version:  v2112                                 |
|   \\  /    A nd           | Website:  www.openfoam.com                      |
|    \\/     M anipulation  |                                                 |
\*---------------------------------------------------------------------------*/
FoamFile
{
    version     2.0;
    format      ascii;
    class       dictionary;
    object      snappyHexMeshDict;
}
// * * * * * * * * * * * * * * * * * * * * * * * * * * * * * * * * * * * * * //

castellatedMesh   true;
snap              true;
addLayers         false;

geometry
{
    pendulum.stl
    {
        type    triSurfaceMesh;
        name    pendulum;
    }

    BoxRefinement_2
    {
        type    box;
        min     (-0.12 -0.12 -0.55);
        max     ( 0.12  0.12 -0.1);
    }
}

castellatedMeshControls
{
    maxLocalCells   200000000; // Adjust as needed based on available resources
    maxGlobalCells  300000000; // Adjust as needed based on available resources
    minRefinementCells 20;
    nCellsBetweenLevels 2;
    maxLoadUnbalance 0.1;
    allowFreeStandingZoneFaces true;
    resolveFeatureAngle 30;

    features
    (
        {
            file "pendulum.eMesh";
            level 0;
        }
    );

    refinementSurfaces
    {
        pendulum
        {
            level (2 4); // Adjust based on desired detail level
        }
    }

    refinementRegions
    {
        BoxRefinement_2
        {
            mode    inside;
            levels  ((0 4)); // Increased refinement inside the box
        }
    }

    locationInMesh (-0.01 -0.14 -0.125);
}

snapControls
{
    tolerance       2.0; // Reduced tolerance for better snapping
    implicitFeatureSnap true;
    explicitFeatureSnap true;
    multiRegionFeatureSnap false;

    nSmoothPatch     6;
    nSolveIter       100;
    nRelaxIter       5;
    nFeatureSnapIter 15;
    nSmoothInternal  3;
    nFaceSplitInterval 5;
}

addLayersControls
{
    layers
    {
        pendulum
        {
            nSurfaceLayers 3;
            firstLayerThickness 0.2;
            expansionRatio 1.2;
        }
    }

    relativeSizes    true;
    expansionRatio   1.2;
    firstLayerThickness 0.1;
    featureAngle     45;
    slipFeatureAngle 30;
    nGrow            0;
    nBufferCellsNoExtrude 0;
    minMedialAxisAngle 90;
    maxFaceThicknessRatio 0.2;
    maxThicknessToMedialRatio 0.3;
    minThickness     1e-06;
    nLayerIter       50;
    nRelaxIter       5;
    nSmoothSurfaceNormals 10;
    nSmoothNormals   3;
    nSmoothThickness 10;
    nRelaxedIter     10;
    nMedialAxisIter  10;
}

meshQualityControls
{
    minVol          1e-25;
    minTetQuality   1e-25;
    minArea         1e-20;
    minTwist        0.001;
    minDeterminant  1e-06;
    minFaceWeight   0.05;
    minVolRatio     0.001;
    minTriangleTwist -1;
    minFlatness     0.5;
    maxNonOrtho     70;
    maxBoundarySkewness 20;
    maxInternalSkewness 4;
    maxConcave      80;
    nSmoothScale    6;
    errorReduction  0.75;

    relaxed
    {
        minVol          1e-30;
        minTetQuality   1e-30;
        minArea         1e-30;
        minTwist        0.001;
        minDeterminant  1e-06;
        minFaceWeight   1e-06;
        minVolRatio     0.01;
        minTriangleTwist -1;
        minFlatness     0.5;
        maxNonOrtho     75;
        maxBoundarySkewness 20;
        maxInternalSkewness 8;
        maxConcave      80;
        nSmoothScale    6;
        errorReduction  0.75;
    }
}

mergeTolerance  1e-08;

debug           0;

// ************************************************************************* //
