/*--------------------------------*- C++ -*----------------------------------*\
| =========                 |                                                 |
| \\      /  F ield         | OpenFOAM: The Open Source CFD Toolbox           |
|  \\    /   O peration     | Version:  v2306                                 |
|   \\  /    A nd           | Website:  www.openfoam.com                      |
|    \\/     M anipulation  |                                                 |
\*---------------------------------------------------------------------------*/
FoamFile
{
    version     2.0;
    format      ascii;
    class       dictionary;
    object      blockMeshDict;
}
// * * * * * * * * * * * * * * * * * * * * * * * * * * * * * * * * * * * * * //

scale    1;

vertices
(
    (-0.75 -0.4 -0.8)  // Adjusted to be fully within the expanded background mesh
    (0.85 -0.4 -0.8)
    (0.85 0.4 -0.8)
    (-0.75 0.4 -0.8)
    (-0.75 -0.4 0.5)
    (0.85 -0.4 0.5)
    (0.85 0.4 0.5)
    (-0.75 0.4 0.5)
);

blocks
(
    hex (0 1 2 3 4 5 6 7) (50 24 45) simpleGrading (1 1 1)  // Slightly refined resolution for better overlap
);

edges
(
);

boundary
(
    overset-1
    {
        type overset;
        faces
        (
            (0 4 7 3)
            (1 2 6 5)
            (0 1 5 4)
            (3 7 6 2)
            (0 3 2 1)
            (4 5 6 7)
        );
    }
);

// ************************************************************************* //
