/*--------------------------------*- C++ -*----------------------------------*\
| =========                 |                                                 |
| \\      /  F ield         | OpenFOAM: The Open Source CFD Toolbox           |
|  \\    /   O peration     | Version:  2306                                  |
|   \\  /    A nd           | Website:  www.openfoam.com                      |
|    \\/     M anipulation  |                                                 |
\*---------------------------------------------------------------------------*/
FoamFile
{
    version     2.0;
    format      ascii;
    arch        "LSB;label=32;scalar=64";
    class       featureEdgeMesh;
    location    "constant/triSurface";
    object      vessel.eMesh;
}
// * * * * * * * * * * * * * * * * * * * * * * * * * * * * * * * * * * * * * //


// points:

190
(
(-0.32548499 0.111142 0.24618)
(-0.32548499 -0.095298998 0.24618)
(-0.149231 0.111142 0.24618)
(-0.149231 -0.095298998 0.24618)
(-0.149231 -0.095298998 0.090000004)
(-0.149231 0.111142 0.090000004)
(0.31623501 -0.106985 0.14618)
(0.31623501 -0.12 0.14618)
(0.31623501 0.13 0.14618)
(0.31623501 0.116985 0.14618)
(-0.355672 -0.12 0.14618)
(-0.355672 0.13 0.14618)
(0.41458699 0.075112 0.19)
(0.41458699 -0.051479001 0.19)
(0.342527 0.075112 0.19)
(0.342527 -0.051479001 0.19)
(0.38829499 0.116985 0.090000004)
(0.38829499 -0.106985 0.090000004)
(0.51683402 0.0049999999 0.090000004)
(-0.32548499 -0.095298998 0.090000004)
(-0.32548499 0.111142 0.090000004)
(0.32110399 0.111142 0.090000004)
(0.32110399 -0.095298998 0.090000004)
(0.342527 -0.051479001 0.090000004)
(0.342527 0.075112 0.090000004)
(0.41458699 0.075112 0.090000004)
(0.41458699 -0.051479001 0.090000004)
(0.38829499 -0.106985 0.14618)
(0.51683402 0.0049999999 0.14618)
(0.38829499 0.116985 0.14618)
(0.30823499 0.13 0.090000004)
(-0.34767199 0.13 0.090000004)
(-0.34767199 -0.12 0.090000004)
(0.30823499 -0.12 0.090000004)
(0.52819097 0.0097329998 0.14618)
(0.52719402 0.012755 0.14618)
(0.52156299 0.020364 0.14618)
(0.392225 0.12814599 0.14618)
(0.38982701 0.129522 0.14618)
(0.387104 0.13 0.14618)
(0.387104 -0.12 0.14618)
(0.38982701 -0.119522 0.14618)
(0.392225 -0.118146 0.14618)
(0.52156299 -0.010364 0.14618)
(0.52383798 -0.0081390003 0.14618)
(0.52573103 0.015581 0.14618)
(0.52383798 0.018138999 0.14618)
(0.52573103 -0.0055809999 0.14618)
(0.52719402 -0.002755 0.14618)
(0.52819097 0.000267 0.14618)
(0.528696 0.0034090001 0.14618)
(0.528696 0.0065910001 0.14618)
(0.31623501 -0.12 0.097999997)
(0.31623501 -0.106985 0.097999997)
(0.31623501 0.116985 0.097999997)
(0.31623501 0.13 0.097999997)
(-0.402628 -0.119975 0.146155)
(-0.402628 0.12997501 0.146155)
(-0.355672 -0.12 0.097999997)
(0.315844 -0.12 0.095527999)
(0.31470701 -0.12 0.093298003)
(0.31293699 -0.12 0.091527998)
(0.310707 -0.12 0.090391003)
(-0.35014501 -0.12 0.090391003)
(-0.352375 -0.12 0.091527998)
(-0.35414499 -0.12 0.093298003)
(-0.355281 -0.12 0.095527999)
(0.310707 0.13 0.090391003)
(0.31293699 0.13 0.091527998)
(0.31470701 0.13 0.093298003)
(0.315844 0.13 0.095527999)
(-0.355672 0.13 0.097999997)
(-0.355281 0.13 0.095527999)
(-0.35414499 0.13 0.093298003)
(-0.352375 0.13 0.091527998)
(-0.35014501 0.13 0.090391003)
(0.30823499 -0.106985 0.090000004)
(0.310707 -0.106985 0.090391003)
(0.31293699 -0.106985 0.091527998)
(0.315844 -0.106985 0.095527999)
(0.31470701 -0.106985 0.093298003)
(0.315844 0.116985 0.095527999)
(0.31293699 0.116985 0.091527998)
(0.310707 0.116985 0.090391003)
(0.31470701 0.116985 0.093298003)
(0.30823499 0.116985 0.090000004)
(0.37334901 0.0062719998 0.34)
(0.37334901 0.003728 0.34)
(0.37586701 0.0134 0.34)
(0.37462601 0.011178 0.34)
(0.373779 0.0087799998 0.34)
(0.381542 0.018394001 0.34)
(0.37937501 0.01706 0.34)
(0.37746501 0.015379 0.34)
(0.38893101 0.019986 0.34)
(0.38638899 0.019878 0.34)
(0.38390201 0.019342 0.34)
(0.39615899 0.017773001 0.34)
(0.393888 0.018918 0.34)
(0.39145499 0.019663 0.34)
(0.40138999 0.012315 0.34)
(0.39996499 0.014423 0.34)
(0.39820501 0.01626 0.34)
(0.40329501 0.0049999999 0.34)
(0.403079 0.0075349999 0.34)
(0.40243801 0.009997 0.34)
(0.40138999 -0.0023149999 0.34)
(0.40243801 3.0000001e-06 0.34)
(0.403079 0.0024649999 0.34)
(0.39615899 -0.0077729998 0.34)
(0.39820501 -0.0062600002 0.34)
(0.39996499 -0.0044229999 0.34)
(0.38893101 -0.0099870004 0.34)
(0.39145499 -0.0096629998 0.34)
(0.393888 -0.0089180004 0.34)
(0.381542 -0.0083940001 0.34)
(0.38390201 -0.0093430001 0.34)
(0.38638899 -0.0098789996 0.34)
(0.37586701 -0.0034 0.34)
(0.37746501 -0.0053790002 0.34)
(0.37937501 -0.0070600002 0.34)
(0.373779 0.00122 0.34)
(0.37462601 -0.001179 0.34)
(-0.40506101 0.129391 0.14557099)
(-0.40670201 0.128472 0.14465199)
(-0.408472 0.126702 0.142882)
(-0.40960801 0.124472 0.140652)
(-0.40506101 -0.119391 0.14557099)
(-0.40670201 -0.118472 0.14465199)
(-0.408472 -0.116702 0.142882)
(-0.40960801 -0.114472 0.140652)
(-0.32548499 0.111142 0.068000004)
(-0.32548499 -0.095298998 0.068000004)
(-0.32548499 -0.094907999 0.065527998)
(-0.32548499 0.103142 0.059999999)
(-0.32548499 0.105614 0.060391001)
(-0.32548499 -0.087298997 0.059999999)
(-0.32548499 -0.089771003 0.060391001)
(-0.32548499 -0.092001997 0.061528001)
(-0.32548499 -0.093771003 0.063298002)
(-0.32548499 0.107844 0.061528001)
(-0.32548499 0.109614 0.063298002)
(-0.32548499 0.11075 0.065527998)
(0.32110399 0.111142 0.068000004)
(0.32110399 -0.095298998 0.068000004)
(0.37462601 0.011179 0.19)
(0.37586701 0.0134 0.19)
(0.373779 0.0087799998 0.19)
(0.37746501 0.015379 0.19)
(0.37937501 0.01706 0.19)
(0.381542 0.018394001 0.19)
(0.40243801 0.009997 0.19)
(0.403079 0.0075349999 0.19)
(0.40329501 0.0049999999 0.19)
(0.403079 0.0024649999 0.19)
(0.40243801 3.0000001e-06 0.19)
(0.39145499 0.019663 0.19)
(0.393888 0.018918 0.19)
(0.39615899 0.017773001 0.19)
(0.39820501 0.01626 0.19)
(0.39996499 0.014423 0.19)
(0.40138999 0.012315 0.19)
(0.39145499 -0.0096629998 0.19)
(0.38893101 -0.0099860001 0.19)
(0.38390201 -0.0093430001 0.19)
(0.381542 -0.0083940001 0.19)
(0.37937501 -0.0070600002 0.19)
(0.37462601 -0.001179 0.19)
(0.373779 0.00122 0.19)
(0.38390201 0.019342 0.19)
(0.38638899 0.019878 0.19)
(0.38893101 0.019986 0.19)
(0.37746501 -0.0053790002 0.19)
(0.37586701 -0.0034 0.19)
(0.37334901 0.003728 0.19)
(0.37334901 0.0062719998 0.19)
(0.40138999 -0.0023149999 0.19)
(0.39996499 -0.0044229999 0.19)
(0.39820501 -0.0062600002 0.19)
(0.38638899 -0.0098789996 0.19)
(0.39615899 -0.0077729998 0.19)
(0.393888 -0.0089180004 0.19)
(0.320712 0.11075 0.065527998)
(0.31992501 0.109963 0.063819997)
(0.31876099 0.108799 0.062343001)
(0.31673601 0.106774 0.060872)
(0.32049501 -0.094690003 0.064938001)
(0.319576 -0.093771003 0.063298002)
(0.31780601 -0.092001997 0.061528001)
(0.31557599 -0.089771003 0.060391001)
)


// edges:

205
(
(0 1)
(2 0)
(1 3)
(3 2)
(4 3)
(19 4)
(1 19)
(0 20)
(5 20)
(2 5)
(4 5)
(30 31)
(20 21)
(32 33)
(22 19)
(21 22)
(6 7)
(27 6)
(34 35)
(29 28)
(36 37)
(37 38)
(8 9)
(39 8)
(9 29)
(38 39)
(7 40)
(40 41)
(41 42)
(28 27)
(42 43)
(43 44)
(35 45)
(45 46)
(46 36)
(44 47)
(47 48)
(48 49)
(49 50)
(50 51)
(51 34)
(52 7)
(6 53)
(54 9)
(8 55)
(56 10)
(11 57)
(10 11)
(58 10)
(52 59)
(59 60)
(60 61)
(61 62)
(63 64)
(64 65)
(66 58)
(65 66)
(62 33)
(32 63)
(30 67)
(68 69)
(67 68)
(69 70)
(70 55)
(11 71)
(71 72)
(72 73)
(73 74)
(74 75)
(75 31)
(76 77)
(77 78)
(79 53)
(78 80)
(80 79)
(54 81)
(82 83)
(81 84)
(84 82)
(83 85)
(25 12)
(12 13)
(13 26)
(24 14)
(14 12)
(23 15)
(15 14)
(13 15)
(86 87)
(88 89)
(89 90)
(90 86)
(91 92)
(92 93)
(93 88)
(94 95)
(95 96)
(96 91)
(97 98)
(98 99)
(99 94)
(100 101)
(101 102)
(102 97)
(103 104)
(104 105)
(105 100)
(106 107)
(107 108)
(108 103)
(109 110)
(110 111)
(111 106)
(112 113)
(113 114)
(114 109)
(115 116)
(116 117)
(117 112)
(118 119)
(119 120)
(120 115)
(87 121)
(121 122)
(122 118)
(123 57)
(124 123)
(125 124)
(126 125)
(127 56)
(128 127)
(129 128)
(130 129)
(16 85)
(76 17)
(23 24)
(24 25)
(18 16)
(25 26)
(17 18)
(26 23)
(27 17)
(28 18)
(29 16)
(131 20)
(19 132)
(132 133)
(134 135)
(136 134)
(137 136)
(138 137)
(139 138)
(133 139)
(140 141)
(135 140)
(141 142)
(142 131)
(143 21)
(144 22)
(145 146)
(147 145)
(146 148)
(148 149)
(149 150)
(151 152)
(152 153)
(153 154)
(154 155)
(156 157)
(157 158)
(158 159)
(159 160)
(160 161)
(161 151)
(162 163)
(164 165)
(165 166)
(167 168)
(150 169)
(169 170)
(170 171)
(171 156)
(166 172)
(172 173)
(173 167)
(168 174)
(174 175)
(175 147)
(155 176)
(176 177)
(177 178)
(163 179)
(179 164)
(178 180)
(180 181)
(181 162)
(182 143)
(183 182)
(184 183)
(185 184)
(186 144)
(187 186)
(188 187)
(189 188)
(20 19)
)

// * * * * * * * * * * * * * * * * * * * * * * * * * * * * * * * * * * * * * //


// ************************************************************************* //
