/*--------------------------------*- C++ -*----------------------------------*\
| =========                 |                                                 |
| \\      /  F ield         | OpenFOAM: The Open Source CFD Toolbox           |
|  \\    /   O peration     | Version:  v2306                                 |
|   \\  /    A nd           | Website:  www.openfoam.com                      |
|    \\/     M anipulation  |                                                 |
\*---------------------------------------------------------------------------*/
FoamFile
{
    version     2.0;
    format      ascii;
    class       volScalarField;
    object      epsilon;
}
// * * * * * * * * * * * * * * * * * * * * * * * * * * * * * * * * * * * * * //

dimensions      [0 2 -3 0 0 0 0];

internalField   uniform 1.36e-4;

boundaryField
{
    #includeEtc "caseDicts/setConstraintTypes"

    "(overset-1|oversetPatch)"
    {
        type           overset;
    }

    inlet
    {
        type            fixedValue;
        value           $internalField;
    }

    bottom
    {
        type            epsilonWallFunction;
        Cmu             0.09;
        kappa           0.41;
        E               9.8;
        value           uniform 0.1;
    }

    outlet
    {
        type            zeroGradient;
    }

    atmosphere
    {
        type            inletOutlet;
        inletValue      uniform 0.1;
        value           uniform 0.1;
    }

    vessel
    {
        type            epsilonWallFunction;
        value           uniform 0.1;
    }

    pendulum
    {
        type            epsilonWallFunction;
        value           uniform 0.1;
    }

    frontAndBack
    {
        type            epsilonWallFunction;
        Cmu             0.09;
        kappa           0.41;
        E               9.8;
        value           uniform 0.1;
    }
}

// ************************************************************************* //
