/*--------------------------------*- C++ -*----------------------------------*\
| =========                 |                                                 |
| \\      /  F ield         | OpenFOAM: The Open Source CFD Toolbox           |
|  \\    /   O peration     | Version:  v2306                                 |
|   \\  /    A nd           | Website:  www.openfoam.com                      |
|    \\/     M anipulation  |                                                 |
\*---------------------------------------------------------------------------*/
FoamFile
{
    version     2.0;
    format      ascii;
    class       dictionary;
    object      controlDict;
}
// * * * * * * * * * * * * * * * * * * * * * * * * * * * * * * * * * * * * * //

libs            (overset fvMotionSolvers rigidBodyMooring);

application     overInterDyMFoam;

startFrom       latestTime;

startTime       0;

stopAt          endTime;

endTime         120;

deltaT          0.0000005;

writeControl    adjustableRunTime;

writeInterval   0.25;

purgeWrite      0;

writeFormat     binary;

writePrecision  8;

writeCompression off;

timeFormat      general;

timePrecision   8;

runTimeModifiable yes;

adjustTimeStep  yes;

maxAlphaCo      0.5;

maxCo           0.5;

maxDeltaT       0.01;

functions
{
    minMax1
    {
        libs            (fieldFunctionObjects);
        type            fieldMinMax;
        fields          (U p);
    }

    interfaceHeight1
    {
        type            interfaceHeight;
        
        libs            ("libfieldFunctionObjects.so");
        
        locations       ( (-1.5 0 0) (1.5 0 0));
        alpha           alpha.water;
        
        writeControl   timeStep;
        writeInterval  5;
    }
}

// ************************************************************************* //
